Version 4
SHEET 1 880 680
WIRE -208 -80 -272 -80
WIRE -64 -80 -128 -80
WIRE 32 -80 -64 -80
WIRE 224 -80 112 -80
WIRE -64 128 -64 -80
WIRE -48 128 -64 128
WIRE 224 160 224 -80
WIRE 224 160 176 160
WIRE 272 160 224 160
WIRE 416 160 352 160
WIRE 528 160 480 160
WIRE -48 192 -64 192
WIRE -272 208 -272 -80
WIRE -64 368 -64 192
WIRE 32 368 -64 368
WIRE 224 368 224 160
WIRE 224 368 112 368
WIRE -64 416 -64 368
WIRE -64 528 -64 480
WIRE 528 528 528 160
FLAG 64 240 0
FLAG -64 528 0
FLAG -272 336 0
FLAG 64 80 VDD
FLAG -784 144 0
FLAG -784 16 5V
FLAG 528 528 0
SYMBOL cktsym\\mcp602x 48 160 R0
SYMATTR InstName U1
SYMBOL res -112 -96 R90
WINDOW 0 0 56 VBottom 2
WINDOW 3 32 56 VTop 2
SYMATTR InstName R1
SYMBOL res 128 -96 R90
WINDOW 0 0 56 VBottom 2
WINDOW 3 32 56 VTop 2
SYMATTR InstName R2
SYMBOL res 128 352 R90
WINDOW 0 0 56 VBottom 2
WINDOW 3 32 56 VTop 2
SYMATTR InstName R3
SYMBOL cap -80 416 R0
SYMATTR InstName C1
SYMBOL cktsym\\vsource -784 80 R0
SYMATTR InstName V1
SYMBOL cktsym\\vsource -272 272 R0
SYMATTR InstName V2
SYMBOL diode 416 176 R270
WINDOW 0 32 32 VTop 2
WINDOW 3 0 32 VBottom 2
SYMATTR InstName D1
SYMBOL res 368 144 R90
WINDOW 0 0 56 VBottom 2
WINDOW 3 32 56 VTop 2
SYMATTR InstName R4
